Network_data/Greensboro_GSO_urban_SH_BH/uhs18_1247/uhs18_1247--udt17294/analysis/peak_transformer_overloads.csv
Loading (p.u.),Name,Bus and Phases,kVA,Number of Phases
1.0090350524078333,Transformer.tr(r:udt20394-udt20394lv),udt20394,75.0,3
1.016781324026257,Transformer.tr(r:udt15198-udt15198lv),udt15198,75.0,3
1.0299926222450833,Transformer.tr(r:udt12561-udt12561lv),udt12561,75.0,3
1.0358582126961984,Transformer.tr(r:udt15347-udt15347lv),udt15347,75.0,3
1.1078528454243242,Transformer.tr(r:udt14791-udt14791lv),udt14791.1,75.0,1
1.171179443725809,Transformer.tr(r:udt4547-udt4547lv),udt4547.3,50.0,1
1.1988407141458897,Transformer.tr(r:udt12959-udt12959lv),udt12959,150.0,3
1.2032617660312699,Transformer.tr(r:udt13017-udt13017lv),udt13017,150.0,3
1.2039477118671535,Transformer.tr(r:udt340-udt340lv),udt340,150.0,3
1.2080666485738596,Transformer.tr(r:udt14445-udt14445lv),udt14445,150.0,3
1.2998577448126374,Transformer.tr(r:udt17238-udt17238lv),udt17238,150.0,3
1.3123281328998742,Transformer.tr(r:udt12710-udt12710lv),udt12710.3,50.0,1
1.3350981917936502,Transformer.tr(r:udt12072-udt12072lv),udt12072.3,50.0,1
1.3382944544450759,Transformer.tr(r:udt11779-udt11779lv),udt11779,150.0,3
1.3410432685566975,Transformer.tr(r:udt14189-udt14189lv),udt14189.3,50.0,1
1.3839261196337103,Transformer.tr(r:udt11208-udt11208lv),udt11208.2,50.0,1
1.3867026953330597,Transformer.tr(r:udt12134-udt12134lv),udt12134.2,50.0,1
1.406451738262593,Transformer.tr(r:udt17851-udt17851lv),udt17851,150.0,3
1.4125577457152252,Transformer.tr(r:udt13927-udt13927lv),udt13927.2,50.0,1
1.422522786265216,Transformer.tr(r:udt4562-udt4562lv),udt4562.3,50.0,1
1.437179935364128,Transformer.tr(r:udt15993-udt15993lv),udt15993,150.0,3
1.4959716664508007,Transformer.tr(r:udt14946-udt14946lv),udt14946.2,50.0,1
1.497307201527558,Transformer.tr(r:udt4293-udt4293lv),udt4293.3,50.0,1
1.4978499303764687,Transformer.tr(r:udt11427-udt11427lv),udt11427,150.0,3
1.540964691680581,Transformer.tr(r:udt15100-udt15100lv),udt15100.1,50.0,1
1.55890334000097,Transformer.tr(r:udt2886-udt2886lv),udt2886,150.0,3
1.5707865514587842,Transformer.tr(r:udt12154-udt12154lv),udt12154,150.0,3
1.6304237245062325,Transformer.tr(r:udt13389-udt13389lv),udt13389.2,50.0,1
1.6460903352509,Transformer.tr(r:udt4545-udt4545lv),udt4545.1,50.0,1
1.6651823786922533,Transformer.tr(r:udt12733-udt12733lv),udt12733.1,50.0,1
1.7911018900559035,Transformer.tr(r:udt1879-udt1879lv),udt1879.1,75.0,1
2.047785569137296,Transformer.tr(r:udt12101-udt12101lv),udt12101,100.0,3
2.141354643397403,Transformer.tr(r:udt15344-udt15344lv),udt15344,100.0,3
2.1502035741957095,Transformer.tr(r:udt6829-udt6829lv),udt6829,100.0,3
2.7190767713067547,Transformer.tr(r:udt2618-udt2618lv),udt2618.3,50.0,1
2.729674259925037,Transformer.tr(r:udt19665-udt19665lv),udt19665.2,50.0,1
2.8271022337915572,Transformer.tr(r:udt16047-udt16047lv),udt16047.2,25.0,1
2.834227443135538,Transformer.tr(r:udt11584-udt11584lv),udt11584.2,25.0,1
2.8354596216429107,Transformer.tr(r:udt16801-udt16801lv),udt16801.1,25.0,1
2.8454608266959984,Transformer.tr(r:udt4557-udt4557lv),udt4557.3,25.0,1
2.9248630072710258,Transformer.tr(r:udt15060-udt15060lv),udt15060.2,25.0,1
2.9417816074308862,Transformer.tr(r:udt6833-udt6833lv),udt6833.2,25.0,1
2.9461511776567093,Transformer.tr(r:udt14797-udt14797lv),udt14797.2,25.0,1
2.9487757958191847,Transformer.tr(r:udt6834-udt6834lv),udt6834.2,50.0,1
2.9760607341161602,Transformer.tr(r:udt4295-udt4295lv),udt4295.1,50.0,1
2.9808416564863447,Transformer.tr(r:udt4282-udt4282lv),udt4282.2,50.0,1
2.9882754193573664,Transformer.tr(r:udt18683-udt18683lv),udt18683,75.0,3
3.0047887570674594,Transformer.tr(r:udt13688-udt13688lv),udt13688.2,25.0,1
3.006251548397491,Transformer.tr(r:udt8449-udt8449lv),udt8449.1,50.0,1
3.0239574219699983,Transformer.tr(r:udt13923-udt13923lv),udt13923.1,25.0,1
3.02724921028711,Transformer.tr(r:udt17681-udt17681lv),udt17681.3,50.0,1
3.041928190196045,Transformer.tr(r:udt13873-udt13873lv),udt13873.2,25.0,1
3.050420316371114,Transformer.tr(r:udt2617-udt2617lv),udt2617.1,50.0,1
3.0548323111692697,Transformer.tr(r:udt14182-udt14182lv),udt14182.3,25.0,1
3.072531469316257,Transformer.tr(r:udt14858-udt14858lv),udt14858.3,25.0,1
3.0771747381856707,Transformer.tr(r:udt13521-udt13521lv),udt13521.2,25.0,1
3.1282903710828864,Transformer.tr(r:udt13977-udt13977lv),udt13977.2,25.0,1
3.1388239172356145,Transformer.tr(r:udt2619-udt2619lv),udt2619.2,50.0,1
3.2083746353215337,Transformer.tr(r:udt4555-udt4555lv),udt4555.3,25.0,1
3.238137213251447,Transformer.tr(r:udt11451-udt11451lv),udt11451.1,25.0,1
3.3295702734602983,Transformer.tr(r:udt6827-udt6827lv),udt6827.1,25.0,1
3.3383076029777596,Transformer.tr(r:udt20853-udt20853lv),udt20853.2,25.0,1
3.3890745909963287,Transformer.tr(r:udt8448-udt8448lv),udt8448.1,50.0,1
3.405678361504956,Transformer.tr(r:udt7852-udt7852lv),udt7852.1,25.0,1
3.4958742146132153,Transformer.tr(r:udt14420-udt14420lv),udt14420.3,25.0,1
3.495919138200162,Transformer.tr(r:udt19510-udt19510lv),udt19510.2,25.0,1
3.5520827316210455,Transformer.tr(r:udt12828-udt12828lv),udt12828.3,25.0,1
4.591065827583683,Transformer.tr(r:udt6825-udt6825lv),udt6825.1,50.0,1
4.999097099332279,Transformer.tr(r:udt11245-udt11245lv),udt11245.1,50.0,1
5.973967180284592,Transformer.tr(r:udt6835-udt6835lv),udt6835.3,25.0,1
6.266592963329994,Transformer.tr(r:udt11248-udt11248lv),udt11248.1,25.0,1
